123Bus/ieee123_Power_elem_kVA.txt

CIRCUIT ELEMENT POWER FLOW

(Power Flow into element from indicated Bus)

Power Delivery Elements

  Bus    Phase     kW     +j   kvar         kVA         PF

ELEMENT = "Vsource.SOURCE"
150          1     -1489.9 +j   -620.8     1614.0       0.9231
150          2     -1022.6 +j   -376.5     1089.7       0.9384
150          3     -1238.9 +j   -441.2     1315.1       0.9420
   TERMINAL TOTAL  -3751.4 +j  -1438.6     4017.7       0.9337
150          0         0.0 +j      0.0        0.0       1.0000
150          0         0.0 +j      0.0        0.0       1.0000
150          0         0.0 +j      0.0        0.0       1.0000
   TERMINAL TOTAL      0.0 +j      0.0        0.0       1.0000

ELEMENT = "Transformer.REG1A"
150          1      1489.9 +j    620.8     1614.0       0.9231
150          2      1022.6 +j    376.5     1089.7       0.9384
150          3      1238.9 +j    441.2     1315.1       0.9420
150          0         0.0 +j      0.0        0.0       1.0000
   TERMINAL TOTAL   3751.4 +j   1438.6     4017.7       0.9337
150R         1     -1489.9 +j   -620.8     1614.0       0.9231
150R         2     -1022.6 +j   -376.5     1089.7       0.9384
150R         3     -1238.9 +j   -441.2     1315.1       0.9420
150R         0         0.0 +j      0.0        0.0       1.0000
   TERMINAL TOTAL  -3751.4 +j  -1438.6     4017.7       0.9337

ELEMENT = "Line.L115"
149          1      1489.9 +j    620.8     1614.0       0.9231
149          2      1022.6 +j    376.5     1089.7       0.9384
149          3      1238.9 +j    441.2     1315.1       0.9420
   TERMINAL TOTAL   3751.4 +j   1438.6     4017.7       0.9337
1            1     -1477.2 +j   -595.3     1592.6       0.9275
1            2     -1021.8 +j   -369.0     1086.4       0.9405
1            3     -1230.3 +j   -428.0     1302.6       0.9445
   TERMINAL TOTAL  -3729.3 +j  -1392.3     3980.7       0.9368

ELEMENT = "Line.L1"
1            2        20.0 +j     10.0       22.4       0.8944
   TERMINAL TOTAL     20.0 +j     10.0       22.4       0.8944
2            2       -20.0 +j    -10.0       22.4       0.8944
   TERMINAL TOTAL    -20.0 +j    -10.0       22.4       0.8944

ELEMENT = "Line.L2"
1            3       100.0 +j     50.1      111.9       0.8940
   TERMINAL TOTAL    100.0 +j     50.1      111.9       0.8940
3            3       -99.9 +j    -50.0      111.7       0.8943
   TERMINAL TOTAL    -99.9 +j    -50.0      111.7       0.8943

ELEMENT = "Line.L3"
1            1      1437.2 +j    575.3     1548.0       0.9284
1            2      1001.8 +j    359.0     1064.2       0.9414
1            3      1130.3 +j    377.9     1191.8       0.9484
   TERMINAL TOTAL   3569.3 +j   1312.2     3802.9       0.9386
7            1     -1427.7 +j   -557.2     1532.6       0.9316
7            2     -1001.4 +j   -353.3     1061.9       0.9430
7            3     -1125.1 +j   -370.0     1184.4       0.9499
   TERMINAL TOTAL  -3554.2 +j  -1280.5     3777.8       0.9408

ELEMENT = "Line.L4"
3            3        40.0 +j     20.0       44.7       0.8944
   TERMINAL TOTAL     40.0 +j     20.0       44.7       0.8944
4            3       -40.0 +j    -20.0       44.7       0.8944
   TERMINAL TOTAL    -40.0 +j    -20.0       44.7       0.8944

ELEMENT = "Line.L5"
3            3        59.9 +j     30.0       66.9       0.8942
   TERMINAL TOTAL     59.9 +j     30.0       66.9       0.8942
5            3       -59.8 +j    -29.9       66.9       0.8944
   TERMINAL TOTAL    -59.8 +j    -29.9       66.9       0.8944

ELEMENT = "Line.L6"
5            3        39.8 +j     19.9       44.5       0.8943
   TERMINAL TOTAL     39.8 +j     19.9       44.5       0.8943
6            3       -39.8 +j    -19.9       44.5       0.8944
   TERMINAL TOTAL    -39.8 +j    -19.9       44.5       0.8944

ELEMENT = "Line.L7"
7            1      1407.7 +j    547.2     1510.3       0.9321
7            2      1001.4 +j    353.3     1061.9       0.9430
7            3      1125.1 +j    370.0     1184.4       0.9499
   TERMINAL TOTAL   3534.2 +j   1270.5     3755.6       0.9410
8            1     -1401.5 +j   -535.6     1500.4       0.9341
8            2     -1001.0 +j   -349.4     1060.2       0.9441
8            3     -1121.7 +j   -364.7     1179.5       0.9510
   TERMINAL TOTAL  -3524.2 +j  -1249.7     3739.2       0.9425

ELEMENT = "Line.L8"
8            2        20.0 +j     10.0       22.4       0.8944
   TERMINAL TOTAL     20.0 +j     10.0       22.4       0.8944
12           2       -20.0 +j    -10.0       22.4       0.8944
   TERMINAL TOTAL    -20.0 +j    -10.0       22.4       0.8944

ELEMENT = "Line.L9"
8            1        98.0 +j     49.1      109.6       0.8940
   TERMINAL TOTAL     98.0 +j     49.1      109.6       0.8940
9            1       -97.8 +j    -49.0      109.4       0.8942
   TERMINAL TOTAL    -97.8 +j    -49.0      109.4       0.8942

ELEMENT = "Line.L10"
8            1      1303.6 +j    486.5     1391.4       0.9369
8            2       981.0 +j    339.4     1038.1       0.9450
8            3      1121.7 +j    364.7     1179.5       0.9510
   TERMINAL TOTAL   3406.2 +j   1190.6     3608.3       0.9440
13           1     -1295.9 +j   -471.8     1379.1       0.9397
13           2      -980.0 +j   -333.9     1035.3       0.9466
13           3     -1116.7 +j   -356.3     1172.1       0.9527
   TERMINAL TOTAL  -3392.6 +j  -1162.1     3586.1       0.9460

ELEMENT = "Line.L11"
9R           1        57.8 +j     29.0       64.7       0.8941
   TERMINAL TOTAL     57.8 +j     29.0       64.7       0.8941
14           1       -57.8 +j    -28.9       64.6       0.8944
   TERMINAL TOTAL    -57.8 +j    -28.9       64.6       0.8944

ELEMENT = "Line.L12"
13           3        98.8 +j     49.5      110.5       0.8942
   TERMINAL TOTAL     98.8 +j     49.5      110.5       0.8942
34           3       -98.8 +j    -49.4      110.4       0.8943
   TERMINAL TOTAL    -98.8 +j    -49.4      110.4       0.8943

ELEMENT = "Line.L13"
13           1       469.8 +j    255.2      534.6       0.8787
13           2       307.9 +j    209.5      372.4       0.8268
13           3       318.2 +j    185.1      368.1       0.8644
   TERMINAL TOTAL   1095.8 +j    649.8     1274.0       0.8602
18           1      -467.4 +j   -249.2      529.7       0.8824
18           2      -307.6 +j   -207.3      370.9       0.8292
18           3      -316.0 +j   -183.2      365.3       0.8650
   TERMINAL TOTAL  -1090.9 +j   -639.8     1264.7       0.8626

ELEMENT = "Line.L14"
14           1        38.2 +j     19.1       42.7       0.8943
   TERMINAL TOTAL     38.2 +j     19.1       42.7       0.8943
11           1       -38.2 +j    -19.1       42.7       0.8944
   TERMINAL TOTAL    -38.2 +j    -19.1       42.7       0.8944

ELEMENT = "Line.L15"
14           1        19.6 +j      9.8       21.9       0.8944
   TERMINAL TOTAL     19.6 +j      9.8       21.9       0.8944
10           1       -19.5 +j     -9.8       21.9       0.8944
   TERMINAL TOTAL    -19.5 +j     -9.8       21.9       0.8944

ELEMENT = "Line.L16"
15           3        40.0 +j     20.0       44.8       0.8943
   TERMINAL TOTAL     40.0 +j     20.0       44.8       0.8943
16           3       -40.0 +j    -20.0       44.7       0.8944
   TERMINAL TOTAL    -40.0 +j    -20.0       44.7       0.8944

ELEMENT = "Line.L17"
15           3        20.0 +j     10.0       22.4       0.8944
   TERMINAL TOTAL     20.0 +j     10.0       22.4       0.8944
17           3       -20.0 +j    -10.0       22.4       0.8944
   TERMINAL TOTAL    -20.0 +j    -10.0       22.4       0.8944

ELEMENT = "Line.L18"
18           1        78.6 +j     39.3       87.9       0.8942
   TERMINAL TOTAL     78.6 +j     39.3       87.9       0.8942
19           1       -78.5 +j    -39.2       87.7       0.8944
   TERMINAL TOTAL    -78.5 +j    -39.2       87.7       0.8944

ELEMENT = "Line.L19"
18           1       113.9 +j     57.5      127.6       0.8928
18           2        39.7 +j     19.9       44.4       0.8944
18           3       120.5 +j     60.4      134.7       0.8939
   TERMINAL TOTAL    274.0 +j    137.7      306.7       0.8935
21           1      -113.9 +j    -57.3      127.5       0.8932
21           2       -39.7 +j    -19.9       44.4       0.8943
21           3      -120.3 +j    -60.3      134.6       0.8941
   TERMINAL TOTAL   -273.9 +j   -137.5      306.5       0.8938

ELEMENT = "Line.L20"
19           1        38.5 +j     19.2       43.0       0.8943
   TERMINAL TOTAL     38.5 +j     19.2       43.0       0.8943
20           1       -38.4 +j    -19.2       43.0       0.8944
   TERMINAL TOTAL    -38.4 +j    -19.2       43.0       0.8944

ELEMENT = "Line.L21"
21           2        39.7 +j     19.9       44.4       0.8942
   TERMINAL TOTAL     39.7 +j     19.9       44.4       0.8942
22           2       -39.7 +j    -19.8       44.3       0.8944
   TERMINAL TOTAL    -39.7 +j    -19.8       44.3       0.8944

ELEMENT = "Line.L22"
21           1       113.9 +j     57.3      127.5       0.8932
21           2         0.0 +j     -0.0        0.0      -0.0621
21           3       120.3 +j     60.3      134.6       0.8941
   TERMINAL TOTAL    234.2 +j    117.6      262.1       0.8937
23           1      -113.9 +j    -57.2      127.4       0.8936
23           2        -0.0 +j      0.0        0.0      -0.0624
23           3      -120.2 +j    -60.2      134.4       0.8943
   TERMINAL TOTAL   -234.1 +j   -117.3      261.9       0.8940

ELEMENT = "Line.L23"
23           3        40.0 +j     20.0       44.8       0.8942
   TERMINAL TOTAL     40.0 +j     20.0       44.8       0.8942
24           3       -40.0 +j    -20.0       44.7       0.8944
   TERMINAL TOTAL    -40.0 +j    -20.0       44.7       0.8944

ELEMENT = "Line.L24"
23           1       113.9 +j     57.2      127.4       0.8936
23           2         0.0 +j     -0.0        0.0      -0.0624
23           3        80.2 +j     40.1       89.6       0.8943
   TERMINAL TOTAL    194.0 +j     97.3      217.1       0.8939
25           1      -113.9 +j    -57.0      127.4       0.8941
25           2        -0.0 +j      0.0        0.0      -0.0625
25           3       -80.1 +j    -40.1       89.6       0.8943
   TERMINAL TOTAL   -194.0 +j    -97.1      216.9       0.8942

ELEMENT = "Line.L25"
25R          1        38.4 +j     19.3       43.0       0.8939
25R          3        40.0 +j     20.0       44.8       0.8943
   TERMINAL TOTAL     78.5 +j     39.3       87.8       0.8941
26           1       -38.4 +j    -19.3       43.0       0.8941
26           3       -40.0 +j    -20.0       44.8       0.8943
   TERMINAL TOTAL    -78.5 +j    -39.3       87.8       0.8942

ELEMENT = "Line.L26"
25           1        75.4 +j     37.8       84.4       0.8942
25           2         0.0 +j     -0.0        0.0      -0.0625
25           3        40.0 +j     20.0       44.8       0.8943
   TERMINAL TOTAL    115.5 +j     57.8      129.1       0.8942
28           1       -75.4 +j    -37.7       84.3       0.8944
28           2        -0.0 +j      0.0        0.0      -0.0626
28           3       -40.0 +j    -20.0       44.8       0.8942
   TERMINAL TOTAL   -115.4 +j    -57.7      129.1       0.8943

ELEMENT = "Line.L27"
26           1        38.4 +j     19.3       43.0       0.8941
26           3        -0.0 +j     -0.0        0.0       0.1542
   TERMINAL TOTAL     38.4 +j     19.3       43.0       0.8941
27           1       -38.4 +j    -19.2       43.0       0.8942
27           3         0.0 +j     -0.0        0.0      -0.8858
   TERMINAL TOTAL    -38.4 +j    -19.2       43.0       0.8942

ELEMENT = "Line.L28"
26           3        40.0 +j     20.0       44.8       0.8943
   TERMINAL TOTAL     40.0 +j     20.0       44.8       0.8943
31           3       -40.0 +j    -20.0       44.7       0.8944
   TERMINAL TOTAL    -40.0 +j    -20.0       44.7       0.8944

ELEMENT = "Line.L29"
27           1        38.4 +j     19.2       43.0       0.8942
   TERMINAL TOTAL     38.4 +j     19.2       43.0       0.8942
33           1       -38.4 +j    -19.2       42.9       0.8944
   TERMINAL TOTAL    -38.4 +j    -19.2       42.9       0.8944

ELEMENT = "Line.L30"
28           1        37.0 +j     18.5       41.3       0.8943
28           2         0.0 +j     -0.0        0.0      -0.0626
28           3        40.0 +j     20.0       44.8       0.8942
   TERMINAL TOTAL     77.0 +j     38.5       86.1       0.8943
29           1       -37.0 +j    -18.5       41.3       0.8945
29           2        -0.0 +j      0.0        0.0      -0.0627
29           3       -40.0 +j    -20.0       44.7       0.8943
   TERMINAL TOTAL    -77.0 +j    -38.5       86.1       0.8944

ELEMENT = "Line.L31"
29           1         0.0 +j     -0.0        0.0      -0.0694
29           2         0.0 +j     -0.0        0.0      -0.0627
29           3        40.0 +j     20.0       44.7       0.8943
   TERMINAL TOTAL     40.0 +j     20.0       44.7       0.8943
30           1        -0.0 +j      0.0        0.0      -0.0694
30           2        -0.0 +j      0.0        0.0      -0.0629
30           3       -40.0 +j    -20.0       44.7       0.8944
   TERMINAL TOTAL    -40.0 +j    -20.0       44.7       0.8945

ELEMENT = "Line.L32"
30           1         0.0 +j     -0.0        0.0      -0.0694
30           2         0.0 +j     -0.0        0.0      -0.0629
30           3        -0.0 +j     -0.0        0.0       0.1319
   TERMINAL TOTAL     -0.0 +j     -0.0        0.0       0.0000
250          1         0.0 +j      0.0        0.0       0.2866
250          2         0.0 +j     -0.0        0.0      -0.8544
250          3         0.0 +j      0.0        0.0       0.6810
   TERMINAL TOTAL      0.0 +j      0.0        0.0       0.7289

ELEMENT = "Line.L33"
31           3        20.0 +j     10.0       22.4       0.8944
   TERMINAL TOTAL     20.0 +j     10.0       22.4       0.8944
32           3       -20.0 +j    -10.0       22.4       0.8944
   TERMINAL TOTAL    -20.0 +j    -10.0       22.4       0.8944

ELEMENT = "Line.L34"
34           3        60.1 +j     30.1       67.2       0.8943
   TERMINAL TOTAL     60.1 +j     30.1       67.2       0.8943
15           3       -60.0 +j    -30.0       67.1       0.8943
   TERMINAL TOTAL    -60.0 +j    -30.0       67.1       0.8943

ELEMENT = "Line.L35"
35           1        36.8 +j     18.4       41.2       0.8942
35           2        39.9 +j     20.0       44.6       0.8940
   TERMINAL TOTAL     76.7 +j     38.4       85.8       0.8941
36           1       -36.8 +j    -18.4       41.1       0.8943
36           2       -39.9 +j    -20.0       44.6       0.8943
   TERMINAL TOTAL    -76.7 +j    -38.4       85.8       0.8943

ELEMENT = "Line.L36"
35           1       212.1 +j    135.1      251.5       0.8434
35           2       213.0 +j    144.5      257.4       0.8274
35           3       195.4 +j    122.5      230.7       0.8473
   TERMINAL TOTAL    620.5 +j    402.2      739.5       0.8392
40           1      -211.9 +j   -134.8      251.1       0.8437
40           2      -212.8 +j   -144.2      257.1       0.8279
40           3      -195.3 +j   -122.2      230.4       0.8477
   TERMINAL TOTAL   -620.0 +j   -401.2      738.5       0.8396

ELEMENT = "Line.L37"
36           1        36.8 +j     18.4       41.1       0.8943
   TERMINAL TOTAL     36.8 +j     18.4       41.1       0.8943
37           1       -36.8 +j    -18.4       41.1       0.8944
   TERMINAL TOTAL    -36.8 +j    -18.4       41.1       0.8944

ELEMENT = "Line.L38"
36           2        39.9 +j     20.0       44.6       0.8943
   TERMINAL TOTAL     39.9 +j     20.0       44.6       0.8943
38           2       -39.9 +j    -19.9       44.6       0.8944
   TERMINAL TOTAL    -39.9 +j    -19.9       44.6       0.8944

ELEMENT = "Line.L39"
38           2        20.0 +j     10.0       22.4       0.8944
   TERMINAL TOTAL     20.0 +j     10.0       22.4       0.8944
39           2       -20.0 +j    -10.0       22.4       0.8944
   TERMINAL TOTAL    -20.0 +j    -10.0       22.4       0.8944

ELEMENT = "Line.L40"
40           3        20.0 +j     10.0       22.4       0.8944
   TERMINAL TOTAL     20.0 +j     10.0       22.4       0.8944
41           3       -20.0 +j    -10.0       22.4       0.8944
   TERMINAL TOTAL    -20.0 +j    -10.0       22.4       0.8944

ELEMENT = "Line.L41"
40           1       211.9 +j    134.8      251.1       0.8437
40           2       212.8 +j    144.2      257.1       0.8279
40           3       175.3 +j    112.2      208.1       0.8423
   TERMINAL TOTAL    600.0 +j    391.2      716.3       0.8377
42           1      -211.6 +j   -134.4      250.7       0.8441
42           2      -212.7 +j   -143.8      256.8       0.8284
42           3      -175.2 +j   -112.0      208.0       0.8426
   TERMINAL TOTAL   -599.6 +j   -390.3      715.4       0.8381

ELEMENT = "Line.L42"
42           2        39.3 +j     19.7       44.0       0.8942
   TERMINAL TOTAL     39.3 +j     19.7       44.0       0.8942
43           2       -39.3 +j    -19.6       43.9       0.8944
   TERMINAL TOTAL    -39.3 +j    -19.6       43.9       0.8944

ELEMENT = "Line.L43"
42           1       191.6 +j    124.4      228.5       0.8387
42           2       173.4 +j    124.2      213.3       0.8131
42           3       175.2 +j    112.0      208.0       0.8426
   TERMINAL TOTAL    540.2 +j    360.6      649.5       0.8318
44           1      -191.4 +j   -124.2      228.2       0.8389
44           2      -173.3 +j   -124.0      213.1       0.8134
44           3      -175.1 +j   -111.8      207.8       0.8429
   TERMINAL TOTAL   -539.9 +j   -360.0      648.9       0.8320

ELEMENT = "Line.L44"
44           1        39.1 +j     19.6       43.8       0.8943
   TERMINAL TOTAL     39.1 +j     19.6       43.8       0.8943
45           1       -39.1 +j    -19.6       43.7       0.8944
   TERMINAL TOTAL    -39.1 +j    -19.6       43.7       0.8944

ELEMENT = "Line.L45"
44           1       152.3 +j    104.6      184.8       0.8243
44           2       173.3 +j    124.0      213.1       0.8134
44           3       175.1 +j    111.8      207.8       0.8429
   TERMINAL TOTAL    500.8 +j    340.4      605.5       0.8270
47           1      -152.2 +j   -104.4      184.6       0.8245
47           2      -173.2 +j   -123.8      212.9       0.8137
47           3      -175.1 +j   -111.5      207.6       0.8434
   TERMINAL TOTAL   -500.5 +j   -339.7      604.9       0.8274

ELEMENT = "Line.L46"
45           1        20.0 +j     10.0       22.4       0.8944
   TERMINAL TOTAL     20.0 +j     10.0       22.4       0.8944
46           1       -20.0 +j    -10.0       22.4       0.8944
   TERMINAL TOTAL    -20.0 +j    -10.0       22.4       0.8944

ELEMENT = "Line.L47"
47           1        63.8 +j     45.6       78.4       0.8137
47           2        68.6 +j     49.0       84.3       0.8137
47           3        66.0 +j     47.2       81.2       0.8136
   TERMINAL TOTAL    198.4 +j    141.7      243.8       0.8137
48           1       -63.7 +j    -45.5       78.3       0.8137
48           2       -68.5 +j    -49.0       84.2       0.8137
48           3       -66.0 +j    -47.2       81.2       0.8137
   TERMINAL TOTAL   -198.3 +j   -141.7      243.7       0.8137

ELEMENT = "Line.L48"
47           1        55.0 +j     35.0       65.2       0.8436
47           2        70.0 +j     50.0       86.1       0.8137
47           3        75.0 +j     40.1       85.0       0.8821
   TERMINAL TOTAL    200.1 +j    125.1      236.0       0.8479
49           1       -55.0 +j    -35.0       65.2       0.8436
49           2       -70.0 +j    -50.0       86.0       0.8138
49           3       -75.0 +j    -40.0       85.0       0.8823
   TERMINAL TOTAL   -200.0 +j   -125.0      235.9       0.8480

ELEMENT = "Line.L49"
49           1        20.0 +j     10.0       22.4       0.8944
49           2        -0.0 +j     -0.0        0.0       0.0774
49           3        40.0 +j     20.0       44.7       0.8944
   TERMINAL TOTAL     60.0 +j     30.0       67.1       0.8944
50           1       -20.0 +j    -10.0       22.4       0.8944
50           2         0.0 +j      0.0        0.0       0.0772
50           3       -40.0 +j    -20.0       44.7       0.8945
   TERMINAL TOTAL    -60.0 +j    -30.0       67.1       0.8945

ELEMENT = "Line.L50"
50           1        20.0 +j     10.0       22.4       0.8944
50           2        -0.0 +j     -0.0        0.0       0.0772
50           3         0.0 +j     -0.0        0.0      -0.1462
   TERMINAL TOTAL     20.0 +j     10.0       22.4       0.8946
51           1       -20.0 +j    -10.0       22.4       0.8945
51           2         0.0 +j      0.0        0.0       0.0772
51           3        -0.0 +j      0.0        0.0      -0.1463
   TERMINAL TOTAL    -20.0 +j    -10.0       22.4       0.8946

ELEMENT = "Line.L51"
51           1        -0.0 +j     -0.0        0.0       0.0705
51           2        -0.0 +j     -0.0        0.0       0.0772
51           3         0.0 +j     -0.0        0.0      -0.1463
   TERMINAL TOTAL     -0.0 +j     -0.0        0.0       0.0000
151          1         0.0 +j     -0.0        0.0      -1.0000
151          2         0.0 +j     -0.0        0.0      -1.0000
151          3         0.0 +j      0.0        0.0       1.0000
   TERMINAL TOTAL      0.0 +j     -0.0        0.0      -1.0000

ELEMENT = "Line.L52"
52           1       781.8 +j    189.4      804.4       0.9719
52           2       671.4 +j    120.8      682.2       0.9842
52           3       697.5 +j    117.8      707.4       0.9860
   TERMINAL TOTAL   2150.8 +j    428.0     2192.9       0.9808
53           1      -779.9 +j   -186.1      801.8       0.9727
53           2      -671.0 +j   -119.0      681.5       0.9846
53           3      -696.5 +j   -115.8      706.0       0.9865
   TERMINAL TOTAL  -2147.4 +j   -420.9     2188.2       0.9813

ELEMENT = "Line.L53"
53           1       739.9 +j    166.1      758.3       0.9757
53           2       671.0 +j    119.0      681.5       0.9846
53           3       696.5 +j    115.8      706.0       0.9865
   TERMINAL TOTAL   2107.4 +j    400.9     2145.2       0.9824
54           1      -738.8 +j   -164.4      756.9       0.9761
54           2      -670.7 +j   -117.9      681.0       0.9849
54           3      -695.9 +j   -114.4      705.2       0.9867
   TERMINAL TOTAL  -2105.3 +j   -396.7     2142.4       0.9827

ELEMENT = "Line.L54"
54           1        18.4 +j      9.2       20.6       0.8945
54           2        20.0 +j     10.0       22.4       0.8944
54           3         0.0 +j     -0.0        0.0      -0.0690
   TERMINAL TOTAL     38.4 +j     19.2       43.0       0.8945
55           1       -18.4 +j     -9.2       20.6       0.8945
55           2       -20.0 +j    -10.0       22.4       0.8944
55           3        -0.0 +j      0.0        0.0      -0.0691
   TERMINAL TOTAL    -38.4 +j    -19.2       43.0       0.8944

ELEMENT = "Line.L55"
54           1       720.4 +j    155.2      736.9       0.9776
54           2       650.7 +j    107.9      659.6       0.9865
54           3       695.9 +j    114.4      705.2       0.9867
   TERMINAL TOTAL   2066.9 +j    377.5     2101.1       0.9837
57           1      -718.4 +j   -150.4      734.0       0.9788
57           2      -648.8 +j   -104.7      657.2       0.9872
57           3      -694.2 +j   -111.1      703.0       0.9874
   TERMINAL TOTAL  -2061.4 +j   -366.3     2093.7       0.9846

ELEMENT = "Line.L56"
55           1        -0.0 +j     -0.0        0.0       0.1498
55           2        20.0 +j     10.0       22.4       0.8944
55           3         0.0 +j     -0.0        0.0      -0.0691
   TERMINAL TOTAL     20.0 +j     10.0       22.4       0.8945
56           1        -0.0 +j     -0.0        0.0       0.0464
56           2       -20.0 +j    -10.0       22.4       0.8944
56           3        -0.0 +j      0.0        0.0      -0.4735
   TERMINAL TOTAL    -20.0 +j    -10.0       22.4       0.8944

ELEMENT = "Line.L57"
57           2        39.9 +j     20.0       44.6       0.8943
   TERMINAL TOTAL     39.9 +j     20.0       44.6       0.8943
58           2       -39.9 +j    -19.9       44.6       0.8944
   TERMINAL TOTAL    -39.9 +j    -19.9       44.6       0.8944

ELEMENT = "Line.L58"
57           1       718.4 +j    150.4      734.0       0.9788
57           2       608.9 +j     84.8      614.8       0.9904
57           3       694.2 +j    111.1      703.0       0.9874
   TERMINAL TOTAL   2021.5 +j    346.4     2051.0       0.9856
60           1      -714.4 +j   -139.9      728.0       0.9814
60           2      -605.6 +j    -79.2      610.8       0.9916
60           3      -690.2 +j   -104.1      698.0       0.9888
   TERMINAL TOTAL  -2010.2 +j   -323.2     2036.1       0.9873

ELEMENT = "Line.L59"
58           2        20.0 +j     10.0       22.4       0.8944
   TERMINAL TOTAL     20.0 +j     10.0       22.4       0.8944
59           2       -20.0 +j    -10.0       22.4       0.8944
   TERMINAL TOTAL    -20.0 +j    -10.0       22.4       0.8944

ELEMENT = "Line.L60"
60           1        75.1 +j     14.7       76.5       0.9813
60           2        79.1 +j     16.6       80.8       0.9788
60           3        77.5 +j     17.5       79.4       0.9754
   TERMINAL TOTAL    231.7 +j     48.8      236.8       0.9785
61           1       -75.0 +j    -14.7       76.4       0.9814
61           2       -79.1 +j    -16.5       80.8       0.9789
61           3       -77.4 +j    -17.4       79.4       0.9756
   TERMINAL TOTAL   -231.6 +j    -48.6      236.6       0.9787

ELEMENT = "Line.L61"
60           1        81.2 +j     62.3      102.4       0.7933
60           2       107.5 +j     58.2      122.3       0.8795
60           3       168.4 +j     80.5      186.6       0.9023
   TERMINAL TOTAL    357.2 +j    201.0      409.8       0.8715
62           1       -81.2 +j    -62.3      102.3       0.7932
62           2      -107.4 +j    -58.2      122.1       0.8792
62           3      -168.0 +j    -80.3      186.2       0.9023
   TERMINAL TOTAL   -356.6 +j   -200.8      409.2       0.8714

ELEMENT = "Line.L62"
62           1        81.2 +j     62.3      102.3       0.7932
62           2       107.4 +j     58.2      122.1       0.8792
62           3       130.7 +j     61.6      144.5       0.9046
   TERMINAL TOTAL    319.3 +j    182.1      367.6       0.8686
63           1       -81.1 +j    -62.3      102.3       0.7931
63           2      -107.3 +j    -58.2      122.0       0.8791
63           3      -130.6 +j    -61.5      144.4       0.9046
   TERMINAL TOTAL   -319.0 +j   -182.0      367.3       0.8685

ELEMENT = "Line.L63"
63           1        41.3 +j     42.4       59.2       0.6980
63           2       107.3 +j     58.2      122.0       0.8791
63           3       130.6 +j     61.5      144.4       0.9046
   TERMINAL TOTAL    279.2 +j    162.1      322.9       0.8648
64           1       -41.3 +j    -42.4       59.2       0.6975
64           2      -107.0 +j    -58.2      121.8       0.8787
64           3      -130.4 +j    -61.4      144.1       0.9048
   TERMINAL TOTAL   -278.7 +j   -162.0      322.3       0.8646

ELEMENT = "Line.L64"
64           1        41.3 +j     42.4       59.2       0.6975
64           2        33.3 +j     23.7       40.9       0.8141
64           3       130.4 +j     61.4      144.1       0.9048
   TERMINAL TOTAL    204.9 +j    127.5      241.4       0.8490
65           1       -41.3 +j    -42.4       59.2       0.6975
65           2       -33.2 +j    -23.8       40.9       0.8133
65           3      -129.9 +j    -61.2      143.6       0.9047
   TERMINAL TOTAL   -204.5 +j   -127.4      240.9       0.8488

ELEMENT = "Line.L65"
65           1         0.0 +j     -0.0        0.0      -0.0002
65           2        -0.0 +j     -0.0        0.0       0.0002
65           3        75.1 +j     35.0       82.9       0.9063
   TERMINAL TOTAL     75.1 +j     35.0       82.9       0.9065
66           1        -0.0 +j     -0.0        0.0       0.7518
66           2        -0.0 +j      0.0        0.0      -0.3573
66           3       -75.0 +j    -35.0       82.8       0.9062
   TERMINAL TOTAL    -75.0 +j    -35.0       82.8       0.9062

ELEMENT = "Line.L66"
67           1       118.4 +j     59.4      132.5       0.8938
   TERMINAL TOTAL    118.4 +j     59.4      132.5       0.8938
68           1      -118.2 +j    -59.2      132.2       0.8940
   TERMINAL TOTAL   -118.2 +j    -59.2      132.2       0.8940

ELEMENT = "Line.L67"
67           1       247.2 +j    -96.1      265.2      -0.9320
67           2       298.3 +j    -57.3      303.8      -0.9821
67           3       305.6 +j    -64.1      312.3      -0.9787
   TERMINAL TOTAL    851.2 +j   -217.4      878.5      -0.9689
72           1      -247.1 +j     96.6      265.3      -0.9314
72           2      -297.9 +j     57.7      303.5      -0.9817
72           3      -305.4 +j     64.7      312.2      -0.9783
   TERMINAL TOTAL   -850.4 +j    219.0      878.2      -0.9684

ELEMENT = "Line.L68"
67           1       171.5 +j     86.8      192.2       0.8922
67           2       120.2 +j     60.3      134.5       0.8937
67           3       137.6 +j     69.1      154.0       0.8937
   TERMINAL TOTAL    429.3 +j    216.3      480.7       0.8931
97           1      -171.4 +j    -86.6      192.0       0.8926
97           2      -120.2 +j    -60.3      134.4       0.8939
97           3      -137.5 +j    -69.0      153.9       0.8939
   TERMINAL TOTAL   -429.1 +j   -215.8      480.3       0.8934

ELEMENT = "Line.L69"
68           1        98.5 +j     49.4      110.1       0.8940
   TERMINAL TOTAL     98.5 +j     49.4      110.1       0.8940
69           1       -98.3 +j    -49.2      109.9       0.8943
   TERMINAL TOTAL    -98.3 +j    -49.2      109.9       0.8943

ELEMENT = "Line.L70"
69           1        58.9 +j     29.5       65.9       0.8941
   TERMINAL TOTAL     58.9 +j     29.5       65.9       0.8941
70           1       -58.8 +j    -29.4       65.8       0.8944
   TERMINAL TOTAL    -58.8 +j    -29.4       65.8       0.8944

...